/*--------------------------------*- C++ -*----------------------------------*\
| =========                 |                                                 |
| \\      /  F ield         | OpenFOAM: The Open Source CFD Toolbox           |
|  \\    /   O peration     | Version:  2.2.1                                 |
|   \\  /    A nd           | Web:      www.OpenFOAM.org                      |
|    \\/     M anipulation  |                                                 |
\*---------------------------------------------------------------------------*/
FoamFile
{
    version     8;
    format      ascii;
    class       dictionary;
    location    "system";
    object      fvSolution;
}
// * * * * * * * * * * * * * * * * * * * * * * * * * * * * * * * * * * * * * //

solvers  // matrix slovers not fluid dymatic slovers
{
    p
    {
        solver          PCG;
        preconditioner  DIC;
        tolerance       1e-06;
        relTol          0.01;
        cacheAgglomeration true;
        nCellsInCoarsestLevel 1000;
        agglomerator    faceAreaPair;
        mergeLevels 1;
    }

    pFinal
    {
        solver          PCG;
        preconditioner  DIC;
        tolerance       1e-06;
        relTol          0;
        cacheAgglomeration true;
        nCellsInCoarsestLevel 1000;
        agglomerator    faceAreaPair;
        mergeLevels 1;
    }

    U
    {
        solver          PBiCG;
        preconditioner  DILU;
        tolerance       1e-05;
        relTol          0.1;
    }

    UFinal
    {
        solver          PBiCG;
        preconditioner  DILU;    
        tolerance       1e-05;
        relTol          0;
    }
 
    nuTildaFinal
    {
        solver          PBiCG;
        preconditioner  DILU;    
        tolerance       1e-05;
        relTol          0;  
    }       
}

PIMPLE
{
    nOuterCorrectors 2;
    nCorrectors     2;
    nNonOrthogonalCorrectors 0;
    pRefCell        0;
    pRefValue       0;
}

relaxationFactors
{
   fields
   {
 
   }
   equations
   {
    p    0.3;
    nuTilda 0.7;
    R       0.7;
    U    0.7;
   }
}
// ************************************************************************* //