/*--------------------------------*- C++ -*----------------------------------*\
  =========                 |
  \\      /  F ield         | OpenFOAM: The Open Source CFD Toolbox
   \\    /   O peration     | Website:  https://openfoam.org
    \\  /    A nd           | Version:  7
     \\/     M anipulation  |
\*---------------------------------------------------------------------------*/
FoamFile
{
    version     2.0;
    format      binary;
    class       volScalarField;
    location    "0";
    object      nuTilda;
}
// * * * * * * * * * * * * * * * * * * * * * * * * * * * * * * * * * * * * * //

dimensions      [0 2 -1 0 0 0 0];

internalField   uniform 0.0001;

boundaryField
{
    airfoil
    {
        type            fixedValue;
        value           uniform 0;
    }
    down
    {
        type            symmetry;
    }
    inlet
    {
        type            fixedValue;
        value           uniform 0.0001;
    }
    outlet
    {
        type            zeroGradient;
    }
    up
    {
        type            symmetry;
    }
    cyc_half0
    {
        type            cyclic;
    }
    cyc_half1
    {
        type            cyclic;
    }
    procBoundary2to0
    {
        type            processor;
        value           uniform 0.0001;
    }
    procBoundary2to0throughcyc_half0
    {
        type            processorCyclic;
        value           uniform 0.0001;
    }
    procBoundary2to3
    {
        type            processor;
        value           uniform 0.0001;
    }
    procBoundary2to3throughcyc_half0
    {
        type            processorCyclic;
        value           uniform 0.0001;
    }
}


// ************************************************************************* //
