/*--------------------------------*- C++ -*----------------------------------*\
  =========                 |
  \\      /  F ield         | OpenFOAM: The Open Source CFD Toolbox
   \\    /   O peration     | Website:  https://openfoam.org
    \\  /    A nd           | Version:  7
     \\/     M anipulation  |
\*---------------------------------------------------------------------------*/
FoamFile
{
    version     2.0;
    format      binary;
    class       polyBoundaryMesh;
    location    "constant/polyMesh";
    object      boundary;
}
// * * * * * * * * * * * * * * * * * * * * * * * * * * * * * * * * * * * * * //

11
(
    airfoil
    {
        type            wall;
        inGroups        List<word> 1(wall);
        nFaces          2552;
        startFace       727865;
    }
    down
    {
        type            symmetry;
        inGroups        List<word> 1(symmetry);
        nFaces          1769;
        startFace       730417;
    }
    inlet
    {
        type            patch;
        nFaces          1595;
        startFace       732186;
    }
    outlet
    {
        type            patch;
        nFaces          0;
        startFace       733781;
    }
    up
    {
        type            symmetry;
        inGroups        List<word> 1(symmetry);
        nFaces          0;
        startFace       733781;
    }
    cyc_half0
    {
        type            cyclic;
        inGroups        List<word> 1(cyclic);
        nFaces          8527;
        startFace       733781;
        matchTolerance  0.0001;
        transform       unknown;
        neighbourPatch  cyc_half1;
    }
    cyc_half1
    {
        type            cyclic;
        inGroups        List<word> 1(cyclic);
        nFaces          8527;
        startFace       742308;
        matchTolerance  0.0001;
        transform       unknown;
        neighbourPatch  cyc_half0;
    }
    procBoundary0to1
    {
        type            processor;
        inGroups        List<word> 1(processor);
        nFaces          4064;
        startFace       750835;
        matchTolerance  0.0001;
        transform       unknown;
        myProcNo        0;
        neighbProcNo    1;
    }
    procBoundary0to1throughcyc_half0
    {
        type            processorCyclic;
        inGroups        List<word> 1(processorCyclic);
        nFaces          4;
        startFace       754899;
        matchTolerance  0.0001;
        transform       unknown;
        myProcNo        0;
        neighbProcNo    1;
        referPatch      cyc_half0;
    }
    procBoundary0to2
    {
        type            processor;
        inGroups        List<word> 1(processor);
        nFaces          3233;
        startFace       754903;
        matchTolerance  0.0001;
        transform       unknown;
        myProcNo        0;
        neighbProcNo    2;
    }
    procBoundary0to2throughcyc_half1
    {
        type            processorCyclic;
        inGroups        List<word> 1(processorCyclic);
        nFaces          43;
        startFace       758136;
        matchTolerance  0.0001;
        transform       unknown;
        myProcNo        0;
        neighbProcNo    2;
        referPatch      cyc_half1;
    }
)

// ************************************************************************* //
