/*--------------------------------*- C++ -*----------------------------------*\
  =========                 |
  \\      /  F ield         | OpenFOAM: The Open Source CFD Toolbox
   \\    /   O peration     | Website:  https://openfoam.org
    \\  /    A nd           | Version:  7
     \\/     M anipulation  |
\*---------------------------------------------------------------------------*/
FoamFile
{
    version     2.0;
    format      binary;
    class       polyBoundaryMesh;
    location    "constant/polyMesh";
    object      boundary;
}
// * * * * * * * * * * * * * * * * * * * * * * * * * * * * * * * * * * * * * //

11
(
    airfoil
    {
        type            wall;
        inGroups        List<word> 1(wall);
        nFaces          232;
        startFace       726633;
    }
    down
    {
        type            symmetry;
        inGroups        List<word> 1(symmetry);
        nFaces          3944;
        startFace       726865;
    }
    inlet
    {
        type            patch;
        nFaces          0;
        startFace       730809;
    }
    outlet
    {
        type            patch;
        nFaces          1595;
        startFace       730809;
    }
    up
    {
        type            symmetry;
        inGroups        List<word> 1(symmetry);
        nFaces          0;
        startFace       732404;
    }
    cyc_half0
    {
        type            cyclic;
        inGroups        List<word> 1(cyclic);
        nFaces          8526;
        startFace       732404;
        matchTolerance  0.0001;
        transform       unknown;
        neighbourPatch  cyc_half1;
    }
    cyc_half1
    {
        type            cyclic;
        inGroups        List<word> 1(cyclic);
        nFaces          8526;
        startFace       740930;
        matchTolerance  0.0001;
        transform       unknown;
        neighbourPatch  cyc_half0;
    }
    procBoundary1to0
    {
        type            processor;
        inGroups        List<word> 1(processor);
        nFaces          4064;
        startFace       749456;
        matchTolerance  0.0001;
        transform       unknown;
        myProcNo        1;
        neighbProcNo    0;
    }
    procBoundary1to0throughcyc_half1
    {
        type            processorCyclic;
        inGroups        List<word> 1(processorCyclic);
        nFaces          4;
        startFace       753520;
        matchTolerance  0.0001;
        transform       unknown;
        myProcNo        1;
        neighbProcNo    0;
        referPatch      cyc_half1;
    }
    procBoundary1to3
    {
        type            processor;
        inGroups        List<word> 1(processor);
        nFaces          5858;
        startFace       753524;
        matchTolerance  0.0001;
        transform       unknown;
        myProcNo        1;
        neighbProcNo    3;
    }
    procBoundary1to3throughcyc_half1
    {
        type            processorCyclic;
        inGroups        List<word> 1(processorCyclic);
        nFaces          29;
        startFace       759382;
        matchTolerance  0.0001;
        transform       unknown;
        myProcNo        1;
        neighbProcNo    3;
        referPatch      cyc_half1;
    }
)

// ************************************************************************* //
