/*--------------------------------*- C++ -*----------------------------------*\
  =========                 |
  \\      /  F ield         | OpenFOAM: The Open Source CFD Toolbox
   \\    /   O peration     | Website:  https://openfoam.org
    \\  /    A nd           | Version:  7
     \\/     M anipulation  |
\*---------------------------------------------------------------------------*/
FoamFile
{
    version     2.0;
    format      binary;
    class       polyBoundaryMesh;
    location    "constant/polyMesh";
    object      boundary;
}
// * * * * * * * * * * * * * * * * * * * * * * * * * * * * * * * * * * * * * //

11
(
    airfoil
    {
        type            wall;
        inGroups        List<word> 1(wall);
        nFaces          319;
        startFace       726642;
    }
    down
    {
        type            symmetry;
        inGroups        List<word> 1(symmetry);
        nFaces          0;
        startFace       726961;
    }
    inlet
    {
        type            patch;
        nFaces          0;
        startFace       726961;
    }
    outlet
    {
        type            patch;
        nFaces          1508;
        startFace       726961;
    }
    up
    {
        type            symmetry;
        inGroups        List<word> 1(symmetry);
        nFaces          3944;
        startFace       728469;
    }
    cyc_half0
    {
        type            cyclic;
        inGroups        List<word> 1(cyclic);
        nFaces          8523;
        startFace       732413;
        matchTolerance  0.0001;
        transform       unknown;
        neighbourPatch  cyc_half1;
    }
    cyc_half1
    {
        type            cyclic;
        inGroups        List<word> 1(cyclic);
        nFaces          8523;
        startFace       740936;
        matchTolerance  0.0001;
        transform       unknown;
        neighbourPatch  cyc_half0;
    }
    procBoundary3to1
    {
        type            processor;
        inGroups        List<word> 1(processor);
        nFaces          5858;
        startFace       749459;
        matchTolerance  0.0001;
        transform       unknown;
        myProcNo        3;
        neighbProcNo    1;
    }
    procBoundary3to1throughcyc_half0
    {
        type            processorCyclic;
        inGroups        List<word> 1(processorCyclic);
        nFaces          29;
        startFace       755317;
        matchTolerance  0.0001;
        transform       unknown;
        myProcNo        3;
        neighbProcNo    1;
        referPatch      cyc_half0;
    }
    procBoundary3to2
    {
        type            processor;
        inGroups        List<word> 1(processor);
        nFaces          4061;
        startFace       755346;
        matchTolerance  0.0001;
        transform       unknown;
        myProcNo        3;
        neighbProcNo    2;
    }
    procBoundary3to2throughcyc_half1
    {
        type            processorCyclic;
        inGroups        List<word> 1(processorCyclic);
        nFaces          1;
        startFace       759407;
        matchTolerance  0.0001;
        transform       unknown;
        myProcNo        3;
        neighbProcNo    2;
        referPatch      cyc_half1;
    }
)

// ************************************************************************* //
