/*--------------------------------*- C++ -*----------------------------------*\
  =========                 |
  \\      /  F ield         | OpenFOAM: The Open Source CFD Toolbox
   \\    /   O peration     | Website:  https://openfoam.org
    \\  /    A nd           | Version:  7
     \\/     M anipulation  |
\*---------------------------------------------------------------------------*/
FoamFile
{
    version     2.0;
    format      binary;
    class       polyBoundaryMesh;
    location    "constant/polyMesh";
    object      boundary;
}
// * * * * * * * * * * * * * * * * * * * * * * * * * * * * * * * * * * * * * //

11
(
    airfoil
    {
        type            wall;
        inGroups        List<word> 1(wall);
        nFaces          2581;
        startFace       727918;
    }
    down
    {
        type            symmetry;
        inGroups        List<word> 1(symmetry);
        nFaces          0;
        startFace       730499;
    }
    inlet
    {
        type            patch;
        nFaces          1508;
        startFace       730499;
    }
    outlet
    {
        type            patch;
        nFaces          0;
        startFace       732007;
    }
    up
    {
        type            symmetry;
        inGroups        List<word> 1(symmetry);
        nFaces          1769;
        startFace       732007;
    }
    cyc_half0
    {
        type            cyclic;
        inGroups        List<word> 1(cyclic);
        nFaces          8509;
        startFace       733776;
        matchTolerance  0.0001;
        transform       unknown;
        neighbourPatch  cyc_half1;
    }
    cyc_half1
    {
        type            cyclic;
        inGroups        List<word> 1(cyclic);
        nFaces          8509;
        startFace       742285;
        matchTolerance  0.0001;
        transform       unknown;
        neighbourPatch  cyc_half0;
    }
    procBoundary2to0
    {
        type            processor;
        inGroups        List<word> 1(processor);
        nFaces          3233;
        startFace       750794;
        matchTolerance  0.0001;
        transform       unknown;
        myProcNo        2;
        neighbProcNo    0;
    }
    procBoundary2to0throughcyc_half0
    {
        type            processorCyclic;
        inGroups        List<word> 1(processorCyclic);
        nFaces          43;
        startFace       754027;
        matchTolerance  0.0001;
        transform       unknown;
        myProcNo        2;
        neighbProcNo    0;
        referPatch      cyc_half0;
    }
    procBoundary2to3
    {
        type            processor;
        inGroups        List<word> 1(processor);
        nFaces          4061;
        startFace       754070;
        matchTolerance  0.0001;
        transform       unknown;
        myProcNo        2;
        neighbProcNo    3;
    }
    procBoundary2to3throughcyc_half0
    {
        type            processorCyclic;
        inGroups        List<word> 1(processorCyclic);
        nFaces          1;
        startFace       758131;
        matchTolerance  0.0001;
        transform       unknown;
        myProcNo        2;
        neighbProcNo    3;
        referPatch      cyc_half0;
    }
)

// ************************************************************************* //
